results/case33.log
components INFO: case_file = case33
components INFO: Solve the power flow

components INFO: Total P gens       3.735 MW
components INFO: Total P load       3.715 MW
components INFO: Total P losses     0.020 MW

components INFO: Total Q gens       2.315 Mvar
components INFO: Total Q shunts     0.000 Mvar
components INFO: Total Q load       2.300 Mvar
components INFO: Total Q losses     0.015 Mvar

components INFO: Read bus coordinates
components INFO: Calculate active power flow components
makeAPFC INFO: Starting ...
makeActiveFlows INFO: Swap branch orientation when both PF and PT are negative (13)
makeActiveFlows DEBUG: Before swap
    F_BUS  T_BUS     PF     PT
7       8      9 -0.076 -0.076
8       9     10 -0.136 -0.136
9      10     11 -0.196 -0.196
10     11     12 -0.241 -0.241
11     12     13 -0.301 -0.303
12     13     14 -0.363 -0.363
21      3     23 -0.168 -0.168
22     23     24 -0.258 -0.258
24      6     26 -0.145 -0.146
25     26     27 -0.206 -0.206
26     27     28 -0.266 -0.268
27     28     29 -0.328 -0.329
28     29     30 -0.449 -0.450
makeActiveFlows DEBUG: After swap
    F_BUS  T_BUS     PF     PT
7       9      8  0.076  0.076
8      10      9  0.136  0.136
9      11     10  0.196  0.196
10     12     11  0.241  0.241
11     13     12  0.303  0.301
12     14     13  0.363  0.363
21     23      3  0.168  0.168
22     24     23  0.258  0.258
24     26      6  0.146  0.145
25     27     26  0.206  0.206
26     28     27  0.268  0.266
27     29     28  0.329  0.328
28     30     29  0.450  0.449
makeAPFC DEBUG: =============== Sets A and B ===============
makeAPFC DEBUG: A[1] = {'E1': {'P': 0.810034939987645, 'side': 'PF', 'sign': 1}}
makeAPFC DEBUG: B[1] = {'G1': {'P': 0.810034939987645, 'side': 'PT', 'sign': 1}}

makeAPFC DEBUG: A[2] = {'E2': {'P': 0.3480605438089647, 'side': 'PF', 'sign': 1}, 'E18': {'P': 0.36113238506036205, 'side': 'PF', 'sign': 1}, 'L2': {'P': 0.1, 'side': 'PF', 'sign': 1}}
makeAPFC DEBUG: B[2] = {'E1': {'P': 0.8091929288693227, 'side': 'PT', 'sign': 1}}

makeAPFC DEBUG: A[3] = {'E3': {'P': 0.42378858723555746, 'side': 'PF', 'sign': 1}, 'L3': {'P': 0.09, 'side': 'PF', 'sign': 1}}
makeAPFC DEBUG: B[3] = {'E2': {'P': 0.34627493907628565, 'side': 'PT', 'sign': 1}, 'E22': {'P': 0.16751364815927478, 'side': 'PT', 'sign': 1}}

makeAPFC DEBUG: A[4] = {'E4': {'P': 0.30219460079933236, 'side': 'PF', 'sign': 1}, 'L4': {'P': 0.12, 'side': 'PF', 'sign': 1}}
makeAPFC DEBUG: B[4] = {'E3': {'P': 0.42219460079907345, 'side': 'PT', 'sign': 1}}

makeAPFC DEBUG: A[5] = {'E5': {'P': 0.24100325170535242, 'side': 'PF', 'sign': 1}, 'L5': {'P': 0.06, 'side': 'PF', 'sign': 1}}
makeAPFC DEBUG: B[5] = {'E4': {'P': 0.3010032517051736, 'side': 'PT', 'sign': 1}}

makeAPFC DEBUG: A[6] = {'E6': {'P': 0.324233608721894, 'side': 'PF', 'sign': 1}, 'L6': {'P': 0.06, 'side': 'PF', 'sign': 1}}
makeAPFC DEBUG: B[6] = {'E5': {'P': 0.23880394858349624, 'side': 'PT', 'sign': 1}, 'E25': {'P': 0.14542966013922612, 'side': 'PT', 'sign': 1}}

makeAPFC DEBUG: A[7] = {'E7': {'P': 0.12408219860581449, 'side': 'PF', 'sign': 1}, 'L7': {'P': 0.2, 'side': 'PF', 'sign': 1}}
makeAPFC DEBUG: B[7] = {'E6': {'P': 0.3240821986040605, 'side': 'PT', 'sign': 1}}

makeAPFC DEBUG: A[8] = {'L8': {'P': 0.2, 'side': 'PF', 'sign': 1}}
makeAPFC DEBUG: B[8] = {'E7': {'P': 0.12400208638899593, 'side': 'PT', 'sign': 1}, 'E8': {'P': 0.07599791361095205, 'side': 'PT', 'sign': 1}}

makeAPFC DEBUG: A[9] = {'E8': {'P': 0.0760540671252963, 'side': 'PF', 'sign': 1}, 'L9': {'P': 0.06, 'side': 'PF', 'sign': 1}}
makeAPFC DEBUG: B[9] = {'E9': {'P': 0.13605406712513637, 'side': 'PT', 'sign': 1}}

makeAPFC DEBUG: A[10] = {'E9': {'P': 0.13621239000832427, 'side': 'PF', 'sign': 1}, 'L10': {'P': 0.06, 'side': 'PF', 'sign': 1}}
makeAPFC DEBUG: B[10] = {'E10': {'P': 0.19621239000860863, 'side': 'PT', 'sign': 1}}

makeAPFC DEBUG: A[11] = {'E10': {'P': 0.19627128875436664, 'side': 'PF', 'sign': 1}, 'L11': {'P': 0.045, 'side': 'PF', 'sign': 1}}
makeAPFC DEBUG: B[11] = {'E11': {'P': 0.24127128875426818, 'side': 'PT', 'sign': 1}}

makeAPFC DEBUG: A[12] = {'E11': {'P': 0.2414457107948292, 'side': 'PF', 'sign': 1}, 'L12': {'P': 0.06, 'side': 'PF', 'sign': 1}}
makeAPFC DEBUG: B[12] = {'E12': {'P': 0.30144571079461063, 'side': 'PT', 'sign': 1}}

makeAPFC DEBUG: A[13] = {'E12': {'P': 0.302524773383815, 'side': 'PF', 'sign': 1}, 'L13': {'P': 0.06, 'side': 'PF', 'sign': 1}}
makeAPFC DEBUG: B[13] = {'E13': {'P': 0.362524773383747, 'side': 'PT', 'sign': 1}}

makeAPFC DEBUG: A[14] = {'E13': {'P': 0.36310109125507684, 'side': 'PF', 'sign': 1}, 'E14': {'P': 0.2707989087443353, 'side': 'PF', 'sign': 1}, 'L14': {'P': 0.12, 'side': 'PF', 'sign': 1}}
makeAPFC DEBUG: B[14] = {'G14': {'P': 0.7539, 'side': 'PT', 'sign': 1}}

makeAPFC DEBUG: A[15] = {'E15': {'P': 0.2104964808392562, 'side': 'PF', 'sign': 1}, 'L15': {'P': 0.06, 'side': 'PF', 'sign': 1}}
makeAPFC DEBUG: B[15] = {'E14': {'P': 0.2704964808392279, 'side': 'PT', 'sign': 1}}

makeAPFC DEBUG: A[16] = {'E16': {'P': 0.15025807785739795, 'side': 'PF', 'sign': 1}, 'L16': {'P': 0.06, 'side': 'PF', 'sign': 1}}
makeAPFC DEBUG: B[16] = {'E15': {'P': 0.2102580778576046, 'side': 'PT', 'sign': 1}}

makeAPFC DEBUG: A[17] = {'E17': {'P': 0.09004499221860995, 'side': 'PF', 'sign': 1}, 'L17': {'P': 0.06, 'side': 'PF', 'sign': 1}}
makeAPFC DEBUG: B[17] = {'E16': {'P': 0.15004499221831152, 'side': 'PT', 'sign': 1}}

makeAPFC DEBUG: A[18] = {'L18': {'P': 0.09, 'side': 'PF', 'sign': 1}}
makeAPFC DEBUG: B[18] = {'E17': {'P': 0.08999999999988491, 'side': 'PT', 'sign': 1}}

makeAPFC DEBUG: A[19] = {'E19': {'P': 0.2709721565135244, 'side': 'PF', 'sign': 1}, 'L19': {'P': 0.09, 'side': 'PF', 'sign': 1}}
makeAPFC DEBUG: B[19] = {'E18': {'P': 0.36097215651349795, 'side': 'PT', 'sign': 1}}

makeAPFC DEBUG: A[20] = {'E20': {'P': 0.1801437396168316, 'side': 'PF', 'sign': 1}, 'L20': {'P': 0.09, 'side': 'PF', 'sign': 1}}
makeAPFC DEBUG: B[20] = {'E19': {'P': 0.2701437396167939, 'side': 'PT', 'sign': 1}}

makeAPFC DEBUG: A[21] = {'E21': {'P': 0.09004343709168271, 'side': 'PF', 'sign': 1}, 'L21': {'P': 0.09, 'side': 'PF', 'sign': 1}}
makeAPFC DEBUG: B[21] = {'E20': {'P': 0.18004343709172196, 'side': 'PT', 'sign': 1}}

makeAPFC DEBUG: A[22] = {'L22': {'P': 0.09, 'side': 'PF', 'sign': 1}}
makeAPFC DEBUG: B[22] = {'E21': {'P': 0.08999999999999589, 'side': 'PT', 'sign': 1}}

makeAPFC DEBUG: A[23] = {'E22': {'P': 0.167611682494033, 'side': 'PF', 'sign': 1}, 'L23': {'P': 0.09, 'side': 'PF', 'sign': 1}}
makeAPFC DEBUG: B[23] = {'E23': {'P': 0.25761168249407906, 'side': 'PT', 'sign': 1}}

makeAPFC DEBUG: A[24] = {'E23': {'P': 0.25808188156056755, 'side': 'PF', 'sign': 1}, 'E24': {'P': 0.42121811843939266, 'side': 'PF', 'sign': 1}, 'L24': {'P': 0.42, 'side': 'PF', 'sign': 1}}
makeAPFC DEBUG: B[24] = {'G24': {'P': 1.0993, 'side': 'PT', 'sign': 1}}

makeAPFC DEBUG: A[25] = {'L25': {'P': 0.42, 'side': 'PF', 'sign': 1}}
makeAPFC DEBUG: B[25] = {'E24': {'P': 0.4199999999999806, 'side': 'PT', 'sign': 1}}

makeAPFC DEBUG: A[26] = {'E25': {'P': 0.14570262008585827, 'side': 'PF', 'sign': 1}, 'L26': {'P': 0.06, 'side': 'PF', 'sign': 1}}
makeAPFC DEBUG: B[26] = {'E26': {'P': 0.20570262008552503, 'side': 'PT', 'sign': 1}}

makeAPFC DEBUG: A[27] = {'E26': {'P': 0.2060846188091104, 'side': 'PF', 'sign': 1}, 'L27': {'P': 0.06, 'side': 'PF', 'sign': 1}}
makeAPFC DEBUG: B[27] = {'E27': {'P': 0.26608461880803785, 'side': 'PT', 'sign': 1}}

makeAPFC DEBUG: A[28] = {'E27': {'P': 0.26756486297965015, 'side': 'PF', 'sign': 1}, 'L28': {'P': 0.06, 'side': 'PF', 'sign': 1}}
makeAPFC DEBUG: B[28] = {'E28': {'P': 0.32756486297826937, 'side': 'PT', 'sign': 1}}

makeAPFC DEBUG: A[29] = {'E28': {'P': 0.32879525773688306, 'side': 'PF', 'sign': 1}, 'L29': {'P': 0.12, 'side': 'PF', 'sign': 1}}
makeAPFC DEBUG: B[29] = {'E29': {'P': 0.44879525773674606, 'side': 'PT', 'sign': 1}}

makeAPFC DEBUG: A[30] = {'E29': {'P': 0.44972491193454767, 'side': 'PF', 'sign': 1}, 'E30': {'P': 0.42157508806201416, 'side': 'PF', 'sign': 1}, 'L30': {'P': 0.2, 'side': 'PF', 'sign': 1}}
makeAPFC DEBUG: B[30] = {'G30': {'P': 1.0713, 'side': 'PT', 'sign': 1}}

makeAPFC DEBUG: A[31] = {'E31': {'P': 0.27019588431387, 'side': 'PF', 'sign': 1}, 'L31': {'P': 0.15, 'side': 'PF', 'sign': 1}}
makeAPFC DEBUG: B[31] = {'E30': {'P': 0.42019588431378685, 'side': 'PT', 'sign': 1}}

makeAPFC DEBUG: A[32] = {'E32': {'P': 0.06001139479310472, 'side': 'PF', 'sign': 1}, 'L32': {'P': 0.21, 'side': 'PF', 'sign': 1}}
makeAPFC DEBUG: B[32] = {'E31': {'P': 0.2700113947917782, 'side': 'PT', 'sign': 1}}

makeAPFC DEBUG: A[33] = {'L33': {'P': 0.06, 'side': 'PF', 'sign': 1}}
makeAPFC DEBUG: B[33] = {'E32': {'P': 0.05999999999951516, 'side': 'PT', 'sign': 1}}

makeAPFC DEBUG: =======================================================
makeAPFC DEBUG: Initial known components: ['G1', 'G14', 'G24', 'G30']
makeAPFC DEBUG: ========== Start of iteration 1 ==========
makeAPFC DEBUG: Processing bus k = 1
makeAPFC DEBUG: B[1]: ['G1'], [0.810034939987645], ['PT'], [1], sum(P) = 0.810034939987645
makeAPFC DEBUG: A[1]: ['E1'], [0.810034939987645], ['PF'], [1], sum(P) = 0.810034939987645
makeAPFC DEBUG: outflow: E1_PF (1-2)
makeAPFC DEBUG: f = 0.810034939987645/0.810034939987645 = 1.0
makeAPFC DEBUG: inflow: G1.G1 = 0.810034939987645, CP = 0.810034939987645 --> component for: E1_PF.G1 (1-2)
makeAPFC DEBUG: P_other_side = 0.8091929288693227 --> component for: E1_PT.G1
makeAPFC DEBUG: Processing bus k = 2
makeAPFC DEBUG: B[2]: ['E1'], [0.8091929288693227], ['PT'], [1], sum(P) = 0.8091929288693227
makeAPFC DEBUG: A[2]: ['E2', 'E18', 'L2'], [0.3480605438089647, 0.36113238506036205, 0.1], ['PF', 'PF', 'PF'], [1, 1, 1], sum(P) = 0.8091929288693267
makeAPFC DEBUG: outflow: E2_PF (2-3)
makeAPFC DEBUG: f = 0.3480605438089647/0.8091929288693227 = 0.430132952712904
makeAPFC DEBUG: inflow: E1.G1 = 0.8091929288693227, CP = 0.3480605438089647 --> component for: E2_PF.G1 (2-3)
makeAPFC DEBUG: P_other_side = 0.34627493907628565 --> component for: E2_PT.G1
makeAPFC DEBUG: outflow: E18_PF (2-19)
makeAPFC DEBUG: f = 0.36113238506036205/0.8091929288693227 = 0.4462871240916165
makeAPFC DEBUG: inflow: E1.G1 = 0.8091929288693227, CP = 0.36113238506036205 --> component for: E18_PF.G1 (2-19)
makeAPFC DEBUG: P_other_side = 0.36097215651349795 --> component for: E18_PT.G1
makeAPFC DEBUG: outflow: L2_PF (2-0)
makeAPFC DEBUG: f = 0.1/0.8091929288693227 = 0.12357992319548444
makeAPFC DEBUG: inflow: E1.G1 = 0.8091929288693227, CP = 0.1 --> component for: L2_PF.G1 (2-0)
makeAPFC DEBUG: P_other_side = 0.1 --> component for: L2_PT.G1
makeAPFC DEBUG: Processing bus k = 3
makeAPFC DEBUG:     not all APFC known, skipping ...
makeAPFC DEBUG: Processing bus k = 4
makeAPFC DEBUG:     not all APFC known, skipping ...
makeAPFC DEBUG: Processing bus k = 5
makeAPFC DEBUG:     not all APFC known, skipping ...
makeAPFC DEBUG: Processing bus k = 6
makeAPFC DEBUG:     not all APFC known, skipping ...
makeAPFC DEBUG: Processing bus k = 7
makeAPFC DEBUG:     not all APFC known, skipping ...
makeAPFC DEBUG: Processing bus k = 8
makeAPFC DEBUG:     not all APFC known, skipping ...
makeAPFC DEBUG: Processing bus k = 9
makeAPFC DEBUG:     not all APFC known, skipping ...
makeAPFC DEBUG: Processing bus k = 10
makeAPFC DEBUG:     not all APFC known, skipping ...
makeAPFC DEBUG: Processing bus k = 11
makeAPFC DEBUG:     not all APFC known, skipping ...
makeAPFC DEBUG: Processing bus k = 12
makeAPFC DEBUG:     not all APFC known, skipping ...
makeAPFC DEBUG: Processing bus k = 13
makeAPFC DEBUG:     not all APFC known, skipping ...
makeAPFC DEBUG: Processing bus k = 14
makeAPFC DEBUG: B[14]: ['G14'], [0.7539], ['PT'], [1], sum(P) = 0.7539
makeAPFC DEBUG: A[14]: ['E13', 'E14', 'L14'], [0.36310109125507684, 0.2707989087443353, 0.12], ['PF', 'PF', 'PF'], [1, 1, 1], sum(P) = 0.7538999999994122
makeAPFC DEBUG: outflow: E13_PF (14-13)
makeAPFC DEBUG: f = 0.36310109125507684/0.7539 = 0.4816303107243359
makeAPFC DEBUG: inflow: G14.G14 = 0.7539, CP = 0.36310109125507684 --> component for: E13_PF.G14 (14-13)
makeAPFC DEBUG: P_other_side = 0.362524773383747 --> component for: E13_PT.G14
makeAPFC DEBUG: outflow: E14_PF (14-15)
makeAPFC DEBUG: f = 0.2707989087443353/0.7539 = 0.35919738525578365
makeAPFC DEBUG: inflow: G14.G14 = 0.7539, CP = 0.2707989087443353 --> component for: E14_PF.G14 (14-15)
makeAPFC DEBUG: P_other_side = 0.2704964808392279 --> component for: E14_PT.G14
makeAPFC DEBUG: outflow: L14_PF (14-0)
makeAPFC DEBUG: f = 0.12/0.7539 = 0.15917230401910068
makeAPFC DEBUG: inflow: G14.G14 = 0.7539, CP = 0.12000000000000001 --> component for: L14_PF.G14 (14-0)
makeAPFC DEBUG: P_other_side = 0.12000000000000001 --> component for: L14_PT.G14
makeAPFC DEBUG: Processing bus k = 15
makeAPFC DEBUG: B[15]: ['E14'], [0.2704964808392279], ['PT'], [1], sum(P) = 0.2704964808392279
makeAPFC DEBUG: A[15]: ['E15', 'L15'], [0.2104964808392562, 0.06], ['PF', 'PF'], [1, 1], sum(P) = 0.2704964808392562
makeAPFC DEBUG: outflow: E15_PF (15-16)
makeAPFC DEBUG: f = 0.2104964808392562/0.2704964808392279 = 0.7781856539729504
makeAPFC DEBUG: inflow: E14.G14 = 0.2704964808392279, CP = 0.2104964808392562 --> component for: E15_PF.G14 (15-16)
makeAPFC DEBUG: P_other_side = 0.2102580778576046 --> component for: E15_PT.G14
makeAPFC DEBUG: outflow: L15_PF (15-0)
makeAPFC DEBUG: f = 0.06/0.2704964808392279 = 0.22181434602715425
makeAPFC DEBUG: inflow: E14.G14 = 0.2704964808392279, CP = 0.06 --> component for: L15_PF.G14 (15-0)
makeAPFC DEBUG: P_other_side = 0.06 --> component for: L15_PT.G14
makeAPFC DEBUG: Processing bus k = 16
makeAPFC DEBUG: B[16]: ['E15'], [0.2102580778576046], ['PT'], [1], sum(P) = 0.2102580778576046
makeAPFC DEBUG: A[16]: ['E16', 'L16'], [0.15025807785739795, 0.06], ['PF', 'PF'], [1, 1], sum(P) = 0.21025807785739795
makeAPFC DEBUG: outflow: E16_PF (16-17)
makeAPFC DEBUG: f = 0.15025807785739795/0.2102580778576046 = 0.7146364096372977
makeAPFC DEBUG: inflow: E15.G14 = 0.2102580778576046, CP = 0.15025807785739795 --> component for: E16_PF.G14 (16-17)
makeAPFC DEBUG: P_other_side = 0.15004499221831152 --> component for: E16_PT.G14
makeAPFC DEBUG: outflow: L16_PF (16-0)
makeAPFC DEBUG: f = 0.06/0.2102580778576046 = 0.2853635903617195
makeAPFC DEBUG: inflow: E15.G14 = 0.2102580778576046, CP = 0.06 --> component for: L16_PF.G14 (16-0)
makeAPFC DEBUG: P_other_side = 0.06 --> component for: L16_PT.G14
makeAPFC DEBUG: Processing bus k = 17
makeAPFC DEBUG: B[17]: ['E16'], [0.15004499221831152], ['PT'], [1], sum(P) = 0.15004499221831152
makeAPFC DEBUG: A[17]: ['E17', 'L17'], [0.09004499221860995, 0.06], ['PF', 'PF'], [1, 1], sum(P) = 0.15004499221860995
makeAPFC DEBUG: outflow: E17_PF (17-18)
makeAPFC DEBUG: f = 0.09004499221860995/0.15004499221831152 = 0.6001199432740605
makeAPFC DEBUG: inflow: E16.G14 = 0.15004499221831152, CP = 0.09004499221860995 --> component for: E17_PF.G14 (17-18)
makeAPFC DEBUG: P_other_side = 0.08999999999988491 --> component for: E17_PT.G14
makeAPFC DEBUG: outflow: L17_PF (17-0)
makeAPFC DEBUG: f = 0.06/0.15004499221831152 = 0.3998800567279285
makeAPFC DEBUG: inflow: E16.G14 = 0.15004499221831152, CP = 0.06 --> component for: L17_PF.G14 (17-0)
makeAPFC DEBUG: P_other_side = 0.06 --> component for: L17_PT.G14
makeAPFC DEBUG: Processing bus k = 18
makeAPFC DEBUG: B[18]: ['E17'], [0.08999999999988491], ['PT'], [1], sum(P) = 0.08999999999988491
makeAPFC DEBUG: A[18]: ['L18'], [0.09], ['PF'], [1], sum(P) = 0.09
makeAPFC DEBUG: outflow: L18_PF (18-0)
makeAPFC DEBUG: f = 0.09/0.08999999999988491 = 1.0000000000012788
makeAPFC DEBUG: inflow: E17.G14 = 0.08999999999988491, CP = 0.09 --> component for: L18_PF.G14 (18-0)
makeAPFC DEBUG: P_other_side = 0.09 --> component for: L18_PT.G14
makeAPFC DEBUG: Processing bus k = 19
makeAPFC DEBUG: B[19]: ['E18'], [0.36097215651349795], ['PT'], [1], sum(P) = 0.36097215651349795
makeAPFC DEBUG: A[19]: ['E19', 'L19'], [0.2709721565135244, 0.09], ['PF', 'PF'], [1, 1], sum(P) = 0.36097215651352443
makeAPFC DEBUG: outflow: E19_PF (19-20)
makeAPFC DEBUG: f = 0.2709721565135244/0.36097215651349795 = 0.7506732905128982
makeAPFC DEBUG: inflow: E18.G1 = 0.36097215651349795, CP = 0.2709721565135244 --> component for: E19_PF.G1 (19-20)
makeAPFC DEBUG: P_other_side = 0.2701437396167939 --> component for: E19_PT.G1
makeAPFC DEBUG: outflow: L19_PF (19-0)
makeAPFC DEBUG: f = 0.09/0.36097215651349795 = 0.24932670948717509
makeAPFC DEBUG: inflow: E18.G1 = 0.36097215651349795, CP = 0.09 --> component for: L19_PF.G1 (19-0)
makeAPFC DEBUG: P_other_side = 0.09 --> component for: L19_PT.G1
makeAPFC DEBUG: Processing bus k = 20
makeAPFC DEBUG: B[20]: ['E19'], [0.2701437396167939], ['PT'], [1], sum(P) = 0.2701437396167939
makeAPFC DEBUG: A[20]: ['E20', 'L20'], [0.1801437396168316, 0.09], ['PF', 'PF'], [1, 1], sum(P) = 0.2701437396168316
makeAPFC DEBUG: outflow: E20_PF (20-21)
makeAPFC DEBUG: f = 0.1801437396168316/0.2701437396167939 = 0.6668440285618698
makeAPFC DEBUG: inflow: E19.G1 = 0.2701437396167939, CP = 0.1801437396168316 --> component for: E20_PF.G1 (20-21)
makeAPFC DEBUG: P_other_side = 0.18004343709172196 --> component for: E20_PT.G1
makeAPFC DEBUG: outflow: L20_PF (20-0)
makeAPFC DEBUG: f = 0.09/0.2701437396167939 = 0.33315597143826986
makeAPFC DEBUG: inflow: E19.G1 = 0.2701437396167939, CP = 0.09 --> component for: L20_PF.G1 (20-0)
makeAPFC DEBUG: P_other_side = 0.09 --> component for: L20_PT.G1
makeAPFC DEBUG: Processing bus k = 21
makeAPFC DEBUG: B[21]: ['E20'], [0.18004343709172196], ['PT'], [1], sum(P) = 0.18004343709172196
makeAPFC DEBUG: A[21]: ['E21', 'L21'], [0.09004343709168271, 0.09], ['PF', 'PF'], [1, 1], sum(P) = 0.1800434370916827
makeAPFC DEBUG: outflow: E21_PF (21-22)
makeAPFC DEBUG: f = 0.09004343709168271/0.18004343709172196 = 0.5001206294779335
makeAPFC DEBUG: inflow: E20.G1 = 0.18004343709172196, CP = 0.09004343709168271 --> component for: E21_PF.G1 (21-22)
makeAPFC DEBUG: P_other_side = 0.08999999999999589 --> component for: E21_PT.G1
makeAPFC DEBUG: outflow: L21_PF (21-0)
makeAPFC DEBUG: f = 0.09/0.18004343709172196 = 0.49987937052184844
makeAPFC DEBUG: inflow: E20.G1 = 0.18004343709172196, CP = 0.09 --> component for: L21_PF.G1 (21-0)
makeAPFC DEBUG: P_other_side = 0.09 --> component for: L21_PT.G1
makeAPFC DEBUG: Processing bus k = 22
makeAPFC DEBUG: B[22]: ['E21'], [0.08999999999999589], ['PT'], [1], sum(P) = 0.08999999999999589
makeAPFC DEBUG: A[22]: ['L22'], [0.09], ['PF'], [1], sum(P) = 0.09
makeAPFC DEBUG: outflow: L22_PF (22-0)
makeAPFC DEBUG: f = 0.09/0.08999999999999589 = 1.0000000000000457
makeAPFC DEBUG: inflow: E21.G1 = 0.08999999999999589, CP = 0.09000000000000001 --> component for: L22_PF.G1 (22-0)
makeAPFC DEBUG: P_other_side = 0.09000000000000001 --> component for: L22_PT.G1
makeAPFC DEBUG: Processing bus k = 23
makeAPFC DEBUG:     not all APFC known, skipping ...
makeAPFC DEBUG: Processing bus k = 24
makeAPFC DEBUG: B[24]: ['G24'], [1.0993], ['PT'], [1], sum(P) = 1.0993
makeAPFC DEBUG: A[24]: ['E23', 'E24', 'L24'], [0.25808188156056755, 0.42121811843939266, 0.42], ['PF', 'PF', 'PF'], [1, 1, 1], sum(P) = 1.0992999999999602
makeAPFC DEBUG: outflow: E23_PF (24-23)
makeAPFC DEBUG: f = 0.25808188156056755/1.0993 = 0.23476929096749527
makeAPFC DEBUG: inflow: G24.G24 = 1.0993, CP = 0.25808188156056755 --> component for: E23_PF.G24 (24-23)
makeAPFC DEBUG: P_other_side = 0.25761168249407906 --> component for: E23_PT.G24
makeAPFC DEBUG: outflow: E24_PF (24-25)
makeAPFC DEBUG: f = 0.42121811843939266/1.0993 = 0.3831693972886316
makeAPFC DEBUG: inflow: G24.G24 = 1.0993, CP = 0.42121811843939266 --> component for: E24_PF.G24 (24-25)
makeAPFC DEBUG: P_other_side = 0.4199999999999806 --> component for: E24_PT.G24
makeAPFC DEBUG: outflow: L24_PF (24-0)
makeAPFC DEBUG: f = 0.42/1.0993 = 0.382061311743837
makeAPFC DEBUG: inflow: G24.G24 = 1.0993, CP = 0.42 --> component for: L24_PF.G24 (24-0)
makeAPFC DEBUG: P_other_side = 0.42 --> component for: L24_PT.G24
makeAPFC DEBUG: Processing bus k = 25
makeAPFC DEBUG: B[25]: ['E24'], [0.4199999999999806], ['PT'], [1], sum(P) = 0.4199999999999806
makeAPFC DEBUG: A[25]: ['L25'], [0.42], ['PF'], [1], sum(P) = 0.42
makeAPFC DEBUG: outflow: L25_PF (25-0)
makeAPFC DEBUG: f = 0.42/0.4199999999999806 = 1.0000000000000462
makeAPFC DEBUG: inflow: E24.G24 = 0.4199999999999806, CP = 0.42 --> component for: L25_PF.G24 (25-0)
makeAPFC DEBUG: P_other_side = 0.42 --> component for: L25_PT.G24
makeAPFC DEBUG: Processing bus k = 26
makeAPFC DEBUG:     not all APFC known, skipping ...
makeAPFC DEBUG: Processing bus k = 27
makeAPFC DEBUG:     not all APFC known, skipping ...
makeAPFC DEBUG: Processing bus k = 28
makeAPFC DEBUG:     not all APFC known, skipping ...
makeAPFC DEBUG: Processing bus k = 29
makeAPFC DEBUG:     not all APFC known, skipping ...
makeAPFC DEBUG: Processing bus k = 30
makeAPFC DEBUG: B[30]: ['G30'], [1.0713], ['PT'], [1], sum(P) = 1.0713
makeAPFC DEBUG: A[30]: ['E29', 'E30', 'L30'], [0.44972491193454767, 0.42157508806201416, 0.2], ['PF', 'PF', 'PF'], [1, 1, 1], sum(P) = 1.0712999999965618
makeAPFC DEBUG: outflow: E29_PF (30-29)
makeAPFC DEBUG: f = 0.44972491193454767/1.0713 = 0.4197936263740761
makeAPFC DEBUG: inflow: G30.G30 = 1.0713, CP = 0.44972491193454767 --> component for: E29_PF.G30 (30-29)
makeAPFC DEBUG: P_other_side = 0.44879525773674606 --> component for: E29_PT.G30
makeAPFC DEBUG: outflow: E30_PF (30-31)
makeAPFC DEBUG: f = 0.42157508806201416/1.0713 = 0.39351730426772535
makeAPFC DEBUG: inflow: G30.G30 = 1.0713, CP = 0.42157508806201416 --> component for: E30_PF.G30 (30-31)
makeAPFC DEBUG: P_other_side = 0.42019588431378685 --> component for: E30_PT.G30
makeAPFC DEBUG: outflow: L30_PF (30-0)
makeAPFC DEBUG: f = 0.2/1.0713 = 0.1866890693549893
makeAPFC DEBUG: inflow: G30.G30 = 1.0713, CP = 0.2 --> component for: L30_PF.G30 (30-0)
makeAPFC DEBUG: P_other_side = 0.2 --> component for: L30_PT.G30
makeAPFC DEBUG: Processing bus k = 31
makeAPFC DEBUG: B[31]: ['E30'], [0.42019588431378685], ['PT'], [1], sum(P) = 0.42019588431378685
makeAPFC DEBUG: A[31]: ['E31', 'L31'], [0.27019588431387, 0.15], ['PF', 'PF'], [1, 1], sum(P) = 0.42019588431387
makeAPFC DEBUG: outflow: E31_PF (31-32)
makeAPFC DEBUG: f = 0.27019588431387/0.42019588431378685 = 0.6430236335016019
makeAPFC DEBUG: inflow: E30.G30 = 0.42019588431378685, CP = 0.27019588431387 --> component for: E31_PF.G30 (31-32)
makeAPFC DEBUG: P_other_side = 0.2700113947917782 --> component for: E31_PT.G30
makeAPFC DEBUG: outflow: L31_PF (31-0)
makeAPFC DEBUG: f = 0.15/0.42019588431378685 = 0.35697636649859593
makeAPFC DEBUG: inflow: E30.G30 = 0.42019588431378685, CP = 0.15 --> component for: L31_PF.G30 (31-0)
makeAPFC DEBUG: P_other_side = 0.15 --> component for: L31_PT.G30
...

components INFO: Calculate reactive power flow components
makeRPFC INFO: Starting ...
makeReactiveFlows INFO: Swap branch orientation when both QF and QT are negative (8)
makeReactiveFlows DEBUG: Before swap
    F_BUS  T_BUS     QF     QT  QSF  QST  TAP
7       8      9 -0.053 -0.053 -0.0 -0.0  1.0
8       9     10 -0.073 -0.073 -0.0 -0.0  1.0
9      10     11 -0.093 -0.093 -0.0 -0.0  1.0
10     11     12 -0.123 -0.123 -0.0 -0.0  1.0
11     12     13 -0.158 -0.159 -0.0 -0.0  1.0
12     13     14 -0.194 -0.194 -0.0 -0.0  1.0
21      3     23 -0.081 -0.081 -0.0 -0.0  1.0
22     23     24 -0.131 -0.131 -0.0 -0.0  1.0
makeReactiveFlows DEBUG: After swap
    F_BUS  T_BUS     QF     QT  QSF  QST  TAP
7       9      8  0.053  0.053 -0.0 -0.0  1.0
8      10      9  0.073  0.073 -0.0 -0.0  1.0
9      11     10  0.093  0.093 -0.0 -0.0  1.0
10     12     11  0.123  0.123 -0.0 -0.0  1.0
11     13     12  0.159  0.158 -0.0 -0.0  1.0
12     14     13  0.194  0.194 -0.0 -0.0  1.0
21     23      3  0.081  0.081 -0.0 -0.0  1.0
22     24     23  0.131  0.131 -0.0 -0.0  1.0
makeRPFC DEBUG: =============== Sets C and D ===============
makeRPFC DEBUG: C[1] = {'E1': {'Q': 0.8986383909980589, 'side': 'QF', 'sign': 1}}
makeRPFC DEBUG: D[1] = {'G1': {'Q': 0.8986383909980589, 'side': 'QT', 'sign': 1}}

makeRPFC DEBUG: C[2] = {'E2': {'Q': 0.6771351869393459, 'side': 'QF', 'sign': 1}, 'E18': {'Q': 0.16107397930218154, 'side': 'QF', 'sign': 1}, 'L2': {'Q': 0.06, 'side': 'QF', 'sign': 1}}
makeRPFC DEBUG: D[2] = {'E1': {'Q': 0.8982091662414304, 'side': 'QT', 'sign': 1}}

makeRPFC DEBUG: C[3] = {'E3': {'Q': 0.7172442977775304, 'side': 'QF', 'sign': 1}, 'L3': {'Q': 0.04, 'side': 'QF', 'sign': 1}}
makeRPFC DEBUG: D[3] = {'E2': {'Q': 0.6762257237580565, 'side': 'QT', 'sign': 1}, 'E22': {'Q': 0.08101857401975776, 'side': 'QT', 'sign': 1}}

makeRPFC DEBUG: C[4] = {'E4': {'Q': 0.636432497034668, 'side': 'QF', 'sign': 1}, 'L4': {'Q': 0.08, 'side': 'QF', 'sign': 1}}
makeRPFC DEBUG: D[4] = {'E3': {'Q': 0.716432497035015, 'side': 'QT', 'sign': 1}}

makeRPFC DEBUG: C[5] = {'E5': {'Q': 0.6058257249034772, 'side': 'QF', 'sign': 1}, 'L5': {'Q': 0.03, 'side': 'QF', 'sign': 1}}
makeRPFC DEBUG: D[5] = {'E4': {'Q': 0.6358257249035315, 'side': 'QT', 'sign': 1}}

makeRPFC DEBUG: C[6] = {'E6': {'Q': 0.14799731572616145, 'side': 'QF', 'sign': 1}, 'E25': {'Q': 0.435929865455843, 'side': 'QF', 'sign': 1}, 'L6': {'Q': 0.02, 'side': 'QF', 'sign': 1}}
makeRPFC DEBUG: D[6] = {'E5': {'Q': 0.6039271811829006, 'side': 'QT', 'sign': 1}}

makeRPFC DEBUG: C[7] = {'E7': {'Q': 0.04749682116942362, 'side': 'QF', 'sign': 1}, 'L7': {'Q': 0.1, 'side': 'QF', 'sign': 1}}
makeRPFC DEBUG: D[7] = {'E6': {'Q': 0.14749682116998958, 'side': 'QT', 'sign': 1}}

makeRPFC DEBUG: C[8] = {'L8': {'Q': 0.1, 'side': 'QF', 'sign': 1}}
makeRPFC DEBUG: D[8] = {'E7': {'Q': 0.047470346074998476, 'side': 'QT', 'sign': 1}, 'E8': {'Q': 0.0525296539247021, 'side': 'QT', 'sign': 1}}

makeRPFC DEBUG: C[9] = {'E8': {'Q': 0.0525699972262698, 'side': 'QF', 'sign': 1}, 'L9': {'Q': 0.02, 'side': 'QF', 'sign': 1}}
makeRPFC DEBUG: D[9] = {'E9': {'Q': 0.07256999722633706, 'side': 'QT', 'sign': 1}}

makeRPFC DEBUG: C[10] = {'E9': {'Q': 0.07268221842706413, 'side': 'QF', 'sign': 1}, 'L10': {'Q': 0.02, 'side': 'QF', 'sign': 1}}
makeRPFC DEBUG: D[10] = {'E10': {'Q': 0.09268221842706188, 'side': 'QT', 'sign': 1}}

makeRPFC DEBUG: C[11] = {'E10': {'Q': 0.09270169156273976, 'side': 'QF', 'sign': 1}, 'L11': {'Q': 0.03, 'side': 'QF', 'sign': 1}}
makeRPFC DEBUG: D[11] = {'E11': {'Q': 0.12270169156255459, 'side': 'QT', 'sign': 1}}

makeRPFC DEBUG: C[12] = {'E11': {'Q': 0.12275936637190676, 'side': 'QF', 'sign': 1}, 'L12': {'Q': 0.035, 'side': 'QF', 'sign': 1}}
makeRPFC DEBUG: D[12] = {'E12': {'Q': 0.15775936637203222, 'side': 'QT', 'sign': 1}}

makeRPFC DEBUG: C[13] = {'E12': {'Q': 0.15860835635195805, 'side': 'QF', 'sign': 1}, 'L13': {'Q': 0.035, 'side': 'QF', 'sign': 1}}
makeRPFC DEBUG: D[13] = {'E13': {'Q': 0.19360835635186197, 'side': 'QT', 'sign': 1}}

makeRPFC DEBUG: C[14] = {'E13': {'Q': 0.1943669549679458, 'side': 'QF', 'sign': 1}, 'E14': {'Q': 0.0907630450323842, 'side': 'QF', 'sign': 1}, 'L14': {'Q': 0.08, 'side': 'QF', 'sign': 1}}
makeRPFC DEBUG: D[14] = {'G14': {'Q': 0.36513, 'side': 'QT', 'sign': 1}}

makeRPFC DEBUG: C[15] = {'E15': {'Q': 0.08049387907952993, 'side': 'QF', 'sign': 1}, 'L15': {'Q': 0.01, 'side': 'QF', 'sign': 1}}
makeRPFC DEBUG: D[15] = {'E14': {'Q': 0.09049387907961516, 'side': 'QT', 'sign': 1}}

makeRPFC DEBUG: C[16] = {'E16': {'Q': 0.06031978069433648, 'side': 'QF', 'sign': 1}, 'L16': {'Q': 0.02, 'side': 'QF', 'sign': 1}}
makeRPFC DEBUG: D[16] = {'E15': {'Q': 0.08031978069416197, 'side': 'QT', 'sign': 1}}

makeRPFC DEBUG: C[17] = {'E17': {'Q': 0.04003528078364686, 'side': 'QF', 'sign': 1}, 'L17': {'Q': 0.02, 'side': 'QF', 'sign': 1}}
makeRPFC DEBUG: D[17] = {'E16': {'Q': 0.06003528078365554, 'side': 'QT', 'sign': 1}}

makeRPFC DEBUG: C[18] = {'L18': {'Q': 0.04, 'side': 'QF', 'sign': 1}}
makeRPFC DEBUG: D[18] = {'E17': {'Q': 0.04000000000011111, 'side': 'QT', 'sign': 1}}

makeRPFC DEBUG: C[19] = {'E19': {'Q': 0.1209210782803262, 'side': 'QF', 'sign': 1}, 'L19': {'Q': 0.04, 'side': 'QF', 'sign': 1}}
makeRPFC DEBUG: D[19] = {'E18': {'Q': 0.1609210782803265, 'side': 'QT', 'sign': 1}}

makeRPFC DEBUG: C[20] = {'E20': {'Q': 0.08017461088116738, 'side': 'QF', 'sign': 1}, 'L20': {'Q': 0.04, 'side': 'QF', 'sign': 1}}
makeRPFC DEBUG: D[20] = {'E19': {'Q': 0.12017461088115813, 'side': 'QT', 'sign': 1}}

makeRPFC DEBUG: C[21] = {'E21': {'Q': 0.040057432058184114, 'side': 'QF', 'sign': 1}, 'L21': {'Q': 0.04, 'side': 'QF', 'sign': 1}}
makeRPFC DEBUG: D[21] = {'E20': {'Q': 0.08005743205818214, 'side': 'QT', 'sign': 1}}

makeRPFC DEBUG: C[22] = {'L22': {'Q': 0.04, 'side': 'QF', 'sign': 1}}
makeRPFC DEBUG: D[22] = {'E21': {'Q': 0.040000000000012234, 'side': 'QT', 'sign': 1}}

makeRPFC DEBUG: C[23] = {'E22': {'Q': 0.08108555980301567, 'side': 'QF', 'sign': 1}, 'L23': {'Q': 0.05, 'side': 'QF', 'sign': 1}}
makeRPFC DEBUG: D[23] = {'E23': {'Q': 0.13108555980301717, 'side': 'QT', 'sign': 1}}

makeRPFC DEBUG: C[24] = {'E23': {'Q': 0.13145684951131, 'side': 'QF', 'sign': 1}, 'E24': {'Q': 0.20095315048868553, 'side': 'QF', 'sign': 1}, 'L24': {'Q': 0.2, 'side': 'QF', 'sign': 1}}
makeRPFC DEBUG: D[24] = {'G24': {'Q': 0.5324099999999999, 'side': 'QT', 'sign': 1}}

makeRPFC DEBUG: C[25] = {'L25': {'Q': 0.2, 'side': 'QF', 'sign': 1}}
makeRPFC DEBUG: D[25] = {'E24': {'Q': 0.19999999999998935, 'side': 'QT', 'sign': 1}}

makeRPFC DEBUG: C[26] = {'E26': {'Q': 0.4107908306847834, 'side': 'QF', 'sign': 1}, 'L26': {'Q': 0.025, 'side': 'QF', 'sign': 1}}
makeRPFC DEBUG: D[26] = {'E25': {'Q': 0.4357908306849968, 'side': 'QT', 'sign': 1}}

makeRPFC DEBUG: C[27] = {'E27': {'Q': 0.3855963366130604, 'side': 'QF', 'sign': 1}, 'L27': {'Q': 0.025, 'side': 'QF', 'sign': 1}}
makeRPFC DEBUG: D[27] = {'E26': {'Q': 0.41059633661264117, 'side': 'QT', 'sign': 1}}

makeRPFC DEBUG: C[28] = {'E28': {'Q': 0.364291233701513, 'side': 'QF', 'sign': 1}, 'L28': {'Q': 0.02, 'side': 'QF', 'sign': 1}}
makeRPFC DEBUG: D[28] = {'E27': {'Q': 0.38429123370179086, 'side': 'QT', 'sign': 1}}

makeRPFC DEBUG: C[29] = {'E29': {'Q': 0.2932193429180257, 'side': 'QF', 'sign': 1}, 'L29': {'Q': 0.07, 'side': 'QF', 'sign': 1}}
...